*INCLUDE, INPUT=all.msh
*INCLUDE, INPUT=support.nam
*INCLUDE, INPUT=interface.nam
*MATERIAL, Name=EL
*HYPERELASTIC,NEO HOOKE
1785714,0.00000012
*DENSITY
 1100
*SOLID SECTION, Elset=Eall, Material=EL
*STEP, NLGEOM, INC=1000000
*DYNAMIC, ALPHA=0.0, DIRECT
1.E-2, 5.0
*BOUNDARY
Nsupport, 1, 3
*CLOAD
 Ninterface, 1, 0.0
 Ninterface, 2, 0.0
 Ninterface, 3, 0.0
*NODE FILE
 U
*EL FILE
 S, E
*END STEP
